22
Lattice="100.0 0.0 0.0 0.0 100.0 0.0 0.0 0.0 100.0" Properties=species:S:1:pos:R:3:forces:R:3 config_type=vacuum energy=-11581.28511599 pbc="T T T"
C       -0.10275000       1.85156000       1.57562000       0.18376000       1.32525000       0.55546000
C       -0.65765000       0.72255000       2.41042000      -0.48734000       0.57713000      -0.23477000
C        0.09665000      -0.33271000       2.14466000      -0.46400000      -2.85993000       0.49867000
H       -1.48516000       0.72600000       3.13151000       0.42360000       0.29017000      -0.61194000
C        1.13454000      -0.05006000       1.19138000       0.93536000       0.83790000      -0.62959000
H       -0.06505000      -1.36569000       2.52245000       0.04630000       0.97770000      -0.11370000
C        1.10090000       1.24977000       0.89320000      -0.95659000       0.58993000       0.49862000
H        1.84749000      -0.71286000       0.75175000       0.16675000      -0.57273000       0.22652000
H        1.74702000       1.88675000       0.32256000       0.25954000      -0.25672000      -0.42561000
H        0.19260000       2.70223000       2.23974000      -0.19085000      -0.45147000      -0.50081000
H       -0.75230000       2.28815000       0.78346000      -0.00018000      -0.37032000       0.68159000
C       -0.95137000      -0.16502000      -1.38893000      -0.27400000      -0.11196000      -0.26231000
C       -2.07150000      -0.32833000      -0.67976000       0.86536000       1.80144000      -0.01917000
H       -2.77628000       0.50930000      -0.69446000      -0.07785000      -0.62352000       0.09497000
H       -2.11621000      -1.07488000       0.08457000      -0.40545000      -0.61275000      -0.05085000
C        0.07530000      -1.27099000      -1.41120000      -0.15263000       0.95715000      -0.98162000
H       -0.82904000       0.73149000      -2.02412000       0.08427000      -0.76706000       0.29202000
O       -0.00040000      -2.21452000      -0.68048000      -0.18672000      -0.78187000       0.85545000
C        1.13450000      -1.24074000      -2.48440000       1.72199000      -0.95810000       1.16086000
H        2.13139000      -0.91627000      -2.10403000      -0.73053000      -0.08769000       0.37263000
H        0.96388000      -0.56069000      -3.26370000      -0.67258000       0.62331000      -1.30344000
H        1.32681000      -2.28454000      -2.79910000      -0.33919000       0.65648000      -0.19214000
22
Lattice="100.0 0.0 0.0 0.0 100.0 0.0 0.0 0.0 100.0" Properties=species:S:1:pos:R:3:forces:R:3 config_type=vacuum energy=-11580.99617362 pbc="T T T"
C       -0.55624000       2.28077000       0.89474000      -1.85742000       0.27917000      -1.86605000
C       -1.29960000       1.02726000       1.24542000      -0.95791000       0.71044000      -0.06246000
C       -0.43040000       0.09900000       1.54288000       1.44754000      -0.42225000       0.52145000
H       -2.35890000       0.84908000       1.15142000      -0.12700000       0.33902000       0.17255000
C        0.91555000       0.63636000       1.35505000       0.77427000      -1.24573000       1.26438000
H       -0.61612000      -0.86365000       1.92447000      -0.33265000      -1.09448000       0.01063000
C        0.85524000       1.89031000       0.94584000       0.30449000       0.17215000       0.52990000
H        1.82195000       0.09241000       1.64503000      -0.42884000       0.27004000      -0.35200000
H        1.71502000       2.49544000       0.80802000       0.33476000       0.66366000      -0.22348000
H       -0.87508000       3.10739000       1.52707000       0.23718000       0.18879000      -0.05889000
H       -0.90341000       2.49036000      -0.15149000       0.42132000       0.43462000       0.60810000
C       -0.86038000      -1.17563000      -1.34671000      -0.24130000       1.93818000      -1.58349000
C       -1.93483000      -1.70774000      -0.79472000       0.10116000       0.31959000      -0.13515000
H       -2.93697000      -1.35657000      -1.06968000       0.47182000      -0.32049000       0.31104000
H       -1.72130000      -2.38996000       0.00513000      -0.55387000      -0.62349000       0.12023000
C        0.52363000      -1.56613000      -0.96485000      -0.83970000       1.05656000       0.21104000
H       -1.00391000      -0.27696000      -2.00894000       0.41774000      -1.18373000       0.42082000
O        0.69617000      -2.56463000      -0.33214000       0.21660000      -1.57052000       0.69097000
C        1.69406000      -0.67713000      -1.20237000       1.70297000       0.13961000      -0.67330000
H        1.53996000       0.33548000      -1.59965000      -0.39599000      -0.21143000       0.67398000
H        2.28811000      -1.13807000      -2.02719000      -0.16163000      -0.07305000       0.74518000
H        2.29044000      -0.70290000      -0.24164000      -0.53787000       0.24256000      -1.55594000
22
Lattice="100.0 0.0 0.0 0.0 100.0 0.0 0.0 0.0 100.0" Properties=species:S:1:pos:R:3:forces:R:3 config_type=vacuum energy=-11581.94101485 pbc="T T T"
C       -0.16880000       1.90776000       0.53299000      -0.86190000      -0.21119000      -1.07526000
C       -0.97319000       0.98674000       1.42447000      -0.28790000      -1.27705000       0.42811000
C        0.14161000       0.20089000       2.16464000      -2.08829000       2.37268000      -2.20183000
H       -1.81341000       1.38939000       1.98153000       0.33560000       0.27717000       0.33221000
C        1.11970000       0.11433000       1.31593000       1.71814000       0.08490000      -1.03346000
H       -0.03610000      -0.26784000       3.03970000      -0.25302000      -1.47645000       2.70080000
C        0.74291000       0.84243000       0.03021000       2.27703000      -2.03804000      -1.71464000
H        2.00780000      -0.46848000       1.45555000       0.30902000      -0.19194000      -0.08881000
H        1.61288000       1.04954000      -0.74798000      -1.78603000      -0.03171000       1.91025000
H        0.31287000       2.67808000       1.04450000       0.85804000       1.28828000       0.87983000
H       -0.73675000       2.27617000      -0.32120000      -0.25308000       0.41206000       0.25869000
C       -0.34779000      -0.11849000      -0.66712000       0.11682000       1.24278000       0.26917000
C       -1.52921000       0.00201000       0.35757000      -0.69910000      -1.57945000      -0.91837000
H       -2.46854000       0.48688000      -0.03908000       1.05033000      -0.78219000      -0.06006000
H       -1.74354000      -1.10205000       0.64186000       0.09516000       2.16659000       0.16302000
C        0.08865000      -1.51615000      -1.03181000       0.10609000      -0.06154000       0.04192000
H       -0.47641000       0.38769000      -1.61164000      -0.69609000       0.17385000      -0.38375000
O       -0.34914000      -2.45614000      -0.41370000       0.33415000      -0.44091000      -0.42962000
C        1.12821000      -1.65985000      -2.17443000       0.40799000       0.15292000       1.67911000
H        2.02948000      -1.13116000      -1.73034000      -0.78778000      -0.58235000      -0.87587000
H        0.82168000      -1.17562000      -3.10118000      -0.07143000       0.10651000       0.17223000
H        1.37213000      -2.72368000      -2.33925000      -0.15576000       0.58224000       0.08059000
22
Lattice="100.0 0.0 0.0 0.0 100.0 0.0 0.0 0.0 100.0" Properties=species:S:1:pos:R:3:forces:R:3 config_type=vacuum energy=-11581.22517081 pbc="T T T"
C        0.34671000       2.16818000       1.58192000      -0.39394000      -0.80570000      -1.19391000
C       -0.77991000       1.21949000       2.04681000       2.54574000      -1.21594000       0.03534000
C       -0.25653000      -0.04826000       2.08282000       0.37905000       1.97794000      -1.51458000
H       -1.78612000       1.53516000       2.23456000      -0.17173000       0.08944000       0.32945000
C        1.12795000      -0.03304000       1.44920000      -1.60963000       0.05216000       0.81306000
H       -0.78842000      -0.96477000       2.24154000      -0.14222000      -0.18953000       0.35697000
C        1.45150000       1.21102000       1.06956000      -1.48307000       0.05283000       1.31604000
H        1.65022000      -0.96837000       1.35017000       0.36628000       0.06641000      -0.18526000
H        2.34222000       1.55595000       0.60321000       0.53504000       0.13970000      -0.24338000
H        0.77739000       2.79127000       2.38002000      -0.31113000      -0.04844000      -0.18113000
H       -0.03524000       2.81200000       0.76311000       0.26950000      -0.09271000       0.49688000
C       -0.91278000      -0.34315000      -1.57115000      -0.92583000      -0.66951000       0.93080000
C       -2.16913000      -0.34099000      -1.11679000       1.46562000       1.38078000      -1.36794000
H       -2.83462000       0.47099000      -1.35442000      -0.11047000       0.15030000       0.25364000
H       -2.49434000      -1.14680000      -0.56253000      -0.90784000      -1.63967000       0.99137000
C       -0.04474000      -1.54213000      -1.35940000       1.40631000       0.32946000      -1.25768000
H       -0.51406000       0.52273000      -2.03723000       0.43895000       0.40266000      -0.60730000
O       -0.37053000      -2.54036000      -0.78412000      -0.89834000      -0.52677000       0.69739000
C        1.38190000      -1.47116000      -1.90392000       0.64969000       1.20955000       1.62310000
H        1.85287000      -0.71998000      -1.20235000      -0.21840000      -0.56920000      -0.81816000
H        1.56007000      -1.11756000      -2.91141000      -0.39731000       0.32102000      -0.20287000
H        1.93151000      -2.39744000      -1.75816000      -0.34451000      -0.13390000       0.16138000
22
Lattice="100.0 0.0 0.0 0.0 100.0 0.0 0.0 0.0 100.0" Properties=species:S:1:pos:R:3:forces:R:3 config_type=vacuum energy=-11580.59345095 pbc="T T T"
C       -0.05261000       1.81093000       0.86675000      -2.63016000       0.37585000       0.94912000
C       -0.90184000       0.79822000       1.69188000       2.37013000       0.11549000       0.19667000
C        0.05222000      -0.15444000       2.12334000      -1.74447000      -0.06955000      -0.62859000
H       -1.86339000       0.99107000       2.11250000      -0.11172000       0.27945000       0.59923000
C        1.18761000      -0.08520000       1.29218000       0.07933000       0.26665000      -0.14430000
H       -0.22671000      -0.99990000       2.74115000       0.27141000       0.15650000       0.10486000
C        1.00822000       0.96915000       0.43389000       1.91774000      -1.18491000      -0.64666000
H        1.96852000      -0.82403000       1.19638000      -0.07383000       0.01012000       0.22337000
H        1.64035000       1.28438000      -0.36579000       0.65574000      -0.00832000      -0.18302000
H        0.34688000       2.61874000       1.48426000      -0.14261000      -0.02916000       0.26199000
H       -0.59852000       2.23787000       0.04243000      -0.17047000       0.46819000      -0.06241000
C       -0.68868000      -0.06379000      -0.94733000      -0.59049000      -0.06373000       0.11828000
C       -1.74958000      -0.05101000      -0.05806000       0.58500000      -0.10705000      -0.14496000
H       -2.35083000       0.83771000       0.02935000      -0.45925000      -0.22782000      -0.50930000
H       -2.15429000      -0.99154000       0.34007000       0.38861000       0.57595000      -0.17137000
C        0.04851000      -1.27581000      -1.16641000       0.16455000      -3.32564000       1.09759000
H       -0.46765000       0.74192000      -1.61433000      -0.09226000       0.43175000      -0.17414000
O       -0.10268000      -2.26903000      -0.42164000      -0.10800000       1.59027000      -0.69195000
C        1.02504000      -1.45122000      -2.30968000       0.46701000       0.98318000       0.89254000
H        1.80673000      -0.66580000      -2.20736000      -0.31707000      -0.54823000      -0.27088000
H        0.48981000      -1.28591000      -3.22199000      -0.18865000       0.14826000      -0.74291000
H        1.46174000      -2.45768000      -2.26616000      -0.16328000       0.49503000      -0.01681000
118
Lattice="100.0 0.0 0.0 0.0 100.0 0.0 0.0 0.0 100.0" Properties=species:S:1:pos:R:3:forces:R:3 config_type=reactants_in_water energy=-78174.7296111 pbc="T T T"
C        5.24781000       7.27777000       6.49088000       1.06348000       0.45921000      -1.90091000
C        4.73738000       6.51894000       7.62570000       0.64312000      -0.65106000       0.85039000
C        5.66758000       5.60854000       7.99129000      -0.27289000      -0.65412000      -1.00356000
H        3.80648000       6.75493000       8.11392000      -0.14283000      -0.27779000       0.00126000
C        6.83171000       5.74229000       7.06336000       0.25873000      -0.41872000       0.88708000
H        5.51486000       4.77032000       8.68447000       0.20481000       0.69876000      -0.10415000
C        6.68376000       6.78825000       6.25281000      -1.54026000      -0.10964000       1.03950000
H        7.69578000       5.10279000       7.08015000       0.10613000      -0.01964000       0.26648000
H        7.45494000       7.25263000       5.67155000      -0.17492000      -0.15093000      -0.33885000
H        5.22940000       8.33095000       6.62755000      -0.23992000       1.10727000       0.15367000
H        4.69649000       7.07806000       5.54325000       0.12841000       0.12429000       0.62243000
C        4.08669000       4.66679000       4.43431000      -1.11229000       0.33759000      -0.33994000
C        2.94357000       4.57056000       5.09329000       0.77937000      -0.15475000       0.69312000
H        2.11400000       5.26476000       4.96335000       0.31886000      -0.13117000       0.54679000
H        2.99412000       3.80898000       5.87563000      -0.74726000       0.02390000      -0.30862000
C        5.11457000       3.61920000       4.48018000       0.20442000      -1.08552000      -0.08251000
H        4.24378000       5.48373000       3.75099000       0.22658000       0.03549000      -0.34259000
O        4.98408000       2.51454000       4.98814000      -0.72218000       1.11340000       0.49667000
C        6.35263000       3.95023000       3.78172000       0.71160000      -1.13354000      -1.43577000
H        6.82329000       4.72317000       4.31015000       0.77877000       1.26774000       0.63871000
H        6.22761000       4.24654000       2.72508000      -0.24139000       0.09181000       0.59523000
H        6.95452000       3.04653000       3.80301000       0.28360000       0.19619000       0.01229000
O        0.64274000       4.42755000       2.88934000      -1.29205000      -0.28620000      -0.71247000
H        1.45117000       4.37451000       3.37376000       0.96734000       0.18846000       0.39285000
H        0.40656000       5.34170000       2.74801000       0.14968000       0.25807000       0.44128000
O        0.88670000       6.37870000       6.59584000      -1.45037000      -0.56750000      -1.74893000
H        1.61964000       6.86637000       6.87771000       1.52237000       1.01460000       0.91616000
H        0.47673000       5.96184000       7.33514000      -0.32126000      -0.32487000       0.93389000
O        0.80267000       2.95201000       6.41613000       0.20853000      -0.41244000       0.60697000
H       -0.11830000       3.04168000       6.24103000      -1.19932000      -0.06898000       0.06550000
H        1.18368000       3.47782000       5.73134000       0.59398000       0.37457000      -0.53359000
O        8.18827000       3.24541000       8.11695000       2.69010000       0.04024000      -1.55743000
H        7.45109000       3.12802000       8.63221000      -2.91667000      -0.13413000       1.91568000
H        8.60825000       2.38293000       8.13996000       0.32871000      -0.01398000      -0.13250000
O        5.42366000       0.62030000       8.07834000      -1.26251000      -0.40088000       0.52786000
H        5.77292000       0.18726000       7.30871000       0.44157000      -0.01386000      -0.39880000
H        6.07262000       1.19418000       8.44811000       0.76104000       0.35361000       0.03584000
O        2.57653000       1.52222000       3.64607000      -1.28801000       0.45045000      -0.03821000
H        1.66362000       1.58162000       3.30749000       0.42391000       0.24650000       0.15657000
H        2.77711000       0.60196000       3.53000000       0.52375000      -0.63921000       0.03766000
O        6.63839000      11.05039000       6.45139000       2.11556000       0.57892000       0.32312000
H        6.65455000      10.67016000       5.59222000       0.03050000      -0.82764000      -1.12050000
H        5.75318000      11.07801000       6.71549000      -2.09906000      -0.09495000       0.80073000
O        6.37512000       0.77069000       3.39012000       1.64215000      -1.61370000       0.56807000
H        5.89880000       0.99839000       4.17463000      -0.51084000       0.52496000       0.74505000
H        5.86955000       1.12468000       2.70052000      -1.23891000       0.97402000      -1.61562000
O        2.60469000       9.95613000       2.59710000       1.30748000       0.89694000       0.09760000
H        2.62630000       9.04471000       2.32009000      -0.09143000      -0.55026000      -0.17402000
H        3.53742000      10.24506000       2.44134000      -1.03855000      -0.32168000       0.14557000
O        6.56165000       8.78867000       4.04805000       1.23551000      -0.54466000       0.15989000
H        7.38770000       8.24344000       3.92676000      -1.32798000       0.89165000      -0.13883000
H        6.52390000       9.38647000       3.30006000       0.06226000      -0.10706000      -0.55932000
O        3.45562000       9.38256000      10.68300000      -0.01990000       0.09343000      -1.41137000
H        3.05238000       8.94947000       9.90621000      -0.09453000      -0.21140000       0.74879000
H        3.97968000      10.02106000      10.17225000       0.16539000      -0.02850000       0.71933000
O        9.94019000       8.06651000       4.34488000      -0.37458000      -0.44612000      -1.88249000
H        9.72642000       8.87707000       4.77009000      -0.17411000       0.78948000       0.82234000
H       10.49839000       7.57743000       4.92728000       0.30308000      -0.38631000       0.93311000
O        8.67314000       6.46617000      10.07437000       0.12491000       0.26218000       0.90216000
H        8.40853000       6.80228000       9.23786000      -0.27125000       0.81603000      -1.36507000
H        8.64116000       5.53327000       9.91210000       0.15821000      -0.93977000       0.17314000
O        7.04739000       9.13307000       9.15006000       0.67503000       0.25523000       0.12581000
H        6.20520000       9.07731000       8.73038000      -0.89739000       0.08967000      -1.02161000
H        6.88151000       8.64433000       9.94810000       0.00544000      -0.37948000       0.61249000
O        3.80531000      10.22923000       7.73274000       0.18377000       1.60768000       1.77392000
H        3.55501000      11.03501000       8.26789000       0.41204000      -1.28947000      -0.79198000
H        3.25902000      10.32925000       6.97166000      -0.83000000      -0.15007000      -1.06989000
O        9.44250000       9.58393000       1.81139000       0.39313000      -0.70326000      -0.50091000
H        9.22779000      10.24805000       2.43796000      -0.62761000       1.16844000       0.65098000
H       10.14774000       9.13179000       2.27996000       0.08341000      -0.49751000      -0.03566000
O       10.60695000       7.84813000       7.13465000       0.85684000      -0.68460000      -0.31190000
H       11.48013000       7.38290000       7.12073000      -1.08133000       1.16632000       0.35978000
H       10.69314000       8.79577000       7.31849000       0.45207000      -0.49991000       0.10581000
O        6.65389000      -2.14239000      10.45814000       0.62265000       2.40020000       0.31944000
H        7.38275000      -2.17525000      11.07744000       0.09204000      -0.03089000       0.10416000
H        6.38264000      -3.01216000      10.33033000      -0.73745000      -2.29420000      -0.31778000
O        5.73153000      10.51914000       1.01480000       0.29820000      -0.46719000       2.38081000
H        5.24475000      11.29248000       0.83242000      -0.75201000       1.35162000      -0.53495000
H        5.84779000      10.05703000       0.21946000       0.25307000      -1.11192000      -1.60154000
O       -1.62012000       6.70998000       9.38114000       1.66525000      -0.66784000       0.89270000
H       -2.44847000       7.12859000       9.32883000      -1.64739000       0.88276000      -0.36541000
H       -1.47392000       6.64022000      10.34109000       0.12476000      -0.03970000      -0.59612000
O       10.70831000       1.39737000       0.44545000      -0.59677000       0.09658000       0.58437000
H       10.92211000       2.30863000       0.28163000       0.01682000       0.59238000      -0.05009000
H       11.20032000       0.91405000      -0.19715000       0.49426000      -0.57585000      -0.64914000
O        8.81513000      11.63148000       8.24646000       1.25326000      -0.67752000       2.45872000
H        8.26408000      11.50807000       7.51852000      -1.65161000      -0.05283000      -2.14515000
H        8.55464000      10.85831000       8.78834000       0.25751000       0.64486000      -0.11516000
O        2.05328000       0.81509000      10.42388000      -0.84468000      -0.17857000      -0.35120000
H        2.14510000       0.24320000       9.65517000      -0.07325000       0.14127000      -0.06637000
H        2.89398000       0.75071000      10.84508000       0.93178000      -0.00087000       0.51493000
O        0.76510000       2.13904000       1.46275000       1.60586000      -0.37224000      -0.10664000
H        0.07408000       2.77033000       1.54134000      -0.91944000       0.65968000       0.35325000
H        0.41518000       1.26288000       1.39958000      -0.65933000      -0.55586000      -0.25779000
O        6.44544000       6.95765000       0.86419000      -0.94125000      -0.72563000      -0.78493000
H        7.28820000       6.68269000       0.46551000      -0.25955000      -0.01502000       0.23444000
H        5.73584000       6.40983000       0.43557000       1.23439000       0.74786000       0.60923000
O       11.12820000       4.55346000       4.31506000      -1.33400000       1.08231000      -3.34927000
H       11.48474000       4.36127000       5.12060000       1.39973000      -0.89317000       3.46617000
H       11.82021000       4.35672000       3.68245000      -0.02454000      -0.08588000      -0.15425000
O        4.14849000       2.63600000       1.80267000      -0.51159000       0.00140000       0.59500000
H        3.28098000       2.56236000       2.29426000       1.25029000      -0.05121000      -0.84204000
H        4.05046000       3.09728000       0.96814000      -0.36501000       0.01431000       0.12469000
O        8.62931000       8.91619000      11.71863000       0.46510000       0.84430000       1.35930000
H        8.44108000       8.39005000      10.97044000       0.06140000      -1.13347000      -1.08515000
H        7.84927000       9.44023000      11.88638000      -0.18024000       0.23256000       0.02250000
O        2.10700000       6.29506000       0.67251000       1.08049000       0.20328000      -0.37294000
H        1.35927000       6.65452000       1.10119000      -1.11515000       1.11054000       0.68659000
H        1.81411000       5.40497000       0.55797000       0.06143000      -1.25236000      -0.24590000
O        9.48431000       6.19478000       1.13063000       0.09965000      -0.38897000      -0.89799000
H        9.42683000       6.43569000       2.03993000      -0.40548000       0.22454000       1.24807000
H       10.38928000       6.41891000       0.92066000       0.22410000       0.05558000      -0.35167000
O        0.97925000      10.05269000       5.15359000      -1.70499000       0.66406000       0.84924000
H        1.79192000       9.89758000       4.73691000       1.92870000      -0.57788000      -1.17493000
H        0.60290000      10.73876000       4.59283000      -0.15290000      -0.07617000       0.09760000
O       11.59306000       4.49999000      11.00594000       0.09179000      -0.10133000      -0.22409000
H       12.38159000       5.01096000      10.85221000       0.67539000       0.02629000      -0.55789000
H       11.22377000       5.03229000      11.69559000      -0.95543000       0.28404000       0.71088000
118
Lattice="100.0 0.0 0.0 0.0 100.0 0.0 0.0 0.0 100.0" Properties=species:S:1:pos:R:3:forces:R:3 config_type=reactants_in_water energy=-78168.48932348 pbc="T T T"
C        5.68346000       7.18986000       6.64891000      -0.11207000      -0.11101000      -0.12683000
C        4.87191000       6.17740000       7.41838000       0.04156000       0.21808000       0.04748000
C        5.76285000       5.17128000       7.80558000      -1.47630000      -0.36044000      -1.34382000
H        3.99704000       6.44672000       7.99201000       0.08916000      -0.09366000      -0.06907000
C        6.91477000       5.25013000       7.02144000       0.02572000       0.24358000      -0.93388000
H        5.53927000       4.37712000       8.50069000      -0.41158000      -0.01126000      -0.70590000
C        6.78320000       6.30828000       6.13985000       0.38028000      -0.16252000       0.24486000
H        7.70367000       4.51517000       7.00683000      -0.03325000       0.03786000       0.01475000
H        7.53838000       6.63622000       5.44209000      -0.02570000       0.09505000      -0.04401000
H        6.11653000       7.89680000       7.36627000      -0.08921000       0.07084000      -0.10194000
H        5.14232000       7.75235000       5.89481000       0.11557000      -0.14123000       0.11897000
C        5.10394000       5.32733000       4.80340000      -0.09315000      -0.29579000      -0.33958000
C        4.05770000       5.36098000       5.71525000       0.02828000       0.11592000      -0.17093000
H        3.29633000       6.12216000       5.61504000      -0.05441000      -0.05705000      -0.04407000
H        3.72848000       4.41837000       6.12557000       0.05975000       0.00786000      -0.02213000
C        5.82878000       4.07143000       4.59485000      -0.24015000       0.58904000       0.05295000
H        5.23046000       6.11091000       4.06977000       0.00083000       0.05640000       0.01339000
O        5.66512000       3.10913000       5.32338000       0.00950000      -0.34832000       0.13778000
C        6.80456000       4.02397000       3.44137000      -0.02757000       0.27270000      -0.08575000
H        7.47298000       4.88474000       3.46615000       0.03661000      -0.05854000       0.08052000
H        6.25537000       4.06411000       2.49931000       0.12062000       0.11950000       0.28307000
H        7.37889000       3.10320000       3.48301000      -0.01304000       0.10577000       0.00612000
O        9.77562000       7.93860000       2.34070000      -0.58766000      -2.43995000      -0.77511000
H        9.56692000       8.05554000       1.37978000       0.26924000      -0.19185000       1.62628000
H        9.18606000       7.19920000       2.63446000       0.91559000       0.96469000      -0.24698000
O        3.14409000       5.25854000       9.75050000      -0.90704000      -0.43798000      -0.09881000
H        3.41228000       4.39089000       9.35572000      -0.83130000       0.81820000       0.37194000
H        2.15416000       5.23368000       9.75500000       1.47841000      -0.26310000      -0.02883000
O        3.34314000       2.73173000       2.79149000       1.41875000       0.00275000      -0.72186000
H        3.50680000       1.84316000       2.38620000       0.15906000       1.37395000       0.36466000
H        4.14269000       3.26468000       2.55214000      -0.86041000      -1.03968000       0.61349000
O        8.13565000       8.76797000       9.02654000      -2.91626000      -1.14758000      -0.17258000
H        7.27531000       9.15498000       8.72548000       1.26051000      -0.46012000       0.20898000
H        8.28138000       7.99206000       8.42878000      -0.33236000       1.16249000       0.74651000
O        1.47134000       8.18615000       7.70633000       0.76536000      -1.54906000       0.74129000
H        1.30783000       7.46473000       8.36469000       0.27376000       1.09191000      -0.97043000
H        2.45767000       8.26119000       7.66032000      -1.20844000       0.13912000       0.34956000
O        1.43961000       5.38389000       3.21036000      -0.63083000      -0.06695000      -1.44448000
H        1.81822000       4.94819000       2.40573000      -0.58320000       0.58045000       1.33932000
H        0.53119000       5.66628000       2.93536000       1.25175000      -0.47183000       0.41095000
O        4.61933000       9.07440000       2.64247000       1.06807000       0.13455000      -2.77623000
H        4.22539000       9.90080000       2.26500000       0.53694000      -1.42860000       0.44809000
H        5.20097000       8.72493000       1.92126000      -1.04968000       0.40692000       0.84085000
O        9.59549000       1.81773000       3.32179000      -1.88627000      -0.98032000      -0.14801000
H        9.03775000       1.09131000       3.69842000       0.68140000       0.99530000      -0.33671000
H        9.05318000       2.18808000       2.58062000       0.97742000      -0.11002000       1.20322000
O        2.56656000       2.85861000       8.38744000      -0.68060000       0.62002000      -1.72277000
H        2.80400000       2.94868000       7.43030000      -0.12075000      -0.35815000       1.27627000
H        1.63203000       2.53117000       8.38150000       1.49815000       0.15880000       0.26443000
O        2.31429000       8.01558000       1.72729000      -2.01447000       1.06603000       0.51733000
H        1.52599000       8.42458000       1.28923000       0.98894000      -0.55035000       0.71136000
H        2.18405000       8.19708000       2.69201000       0.20211000      -0.04881000      -1.16944000
O        7.46171000       0.05433000       8.58636000      -1.70143000       0.46312000      -0.58874000
H        6.65527000       0.46733000       8.98596000       1.04118000      -0.48012000      -0.76223000
H        7.44553000       0.34394000       7.63954000       0.05521000      -0.28978000       1.32135000
O        1.63221000       0.59298000       9.00892000      -0.20381000      -2.32772000      -0.68335000
H        2.37773000       0.04347000       9.35942000      -1.04071000       1.08480000      -0.31591000
H        1.24352000       0.04753000       8.27953000       0.51353000       0.58192000       1.05208000
O        9.65703000       9.60250000       7.55333000       2.56230000      -0.16584000      -0.97795000
H       10.50273000       9.88432000       7.98458000      -1.08085000      -0.41930000      -0.66083000
H        9.81049000       8.65753000       7.30020000       0.06654000       1.43402000       0.16547000
O        0.95772000       2.24512000       2.10571000       0.61346000      -0.69180000      -1.12723000
H        1.40956000       1.36771000       2.18695000      -0.66976000       1.32576000      -0.08954000
H        1.62686000       2.82919000       1.66788000      -0.86582000      -1.04077000       1.00996000
O       10.75336000       3.58863000       1.88224000      -0.06410000       0.15060000      -1.83236000
H       10.77692000       2.74188000       1.36935000       0.04941000       0.90670000       0.64323000
H       10.73735000       4.29723000       1.19070000       0.11589000      -0.99309000       0.91588000
O        9.42349000       7.31664000      10.72414000      -0.61782000       0.42574000      -0.54897000
H        8.76670000       6.89827000      10.11242000       0.86128000       0.60943000       1.09368000
H        9.24969000       8.28852000      10.64770000       0.02974000      -1.69068000       0.09147000
O        9.34598000       1.76119000       9.02541000      -0.01303000       1.95380000      -0.45024000
H        9.95386000       2.45557000       8.66634000      -0.84626000      -0.79132000       0.58354000
H        8.47609000       2.22273000       9.12956000       1.27061000      -0.69955000      -0.26062000
O        3.48747000       0.54575000       4.69708000       0.75600000       0.26676000      -1.21572000
H        4.23990000       0.18489000       4.16393000      -0.98742000       0.66900000       0.88347000
H        3.40094000       1.48618000       4.39928000       0.23560000      -0.87006000       0.42392000
O        8.25740000       9.32414000       4.34689000      -0.01240000       1.39058000      -0.34307000
H        8.65190000      10.16520000       4.68979000      -0.54646000      -1.25794000      -0.42661000
H        7.95240000       9.54815000       3.43180000       0.58215000      -0.27022000       1.13661000
O        0.91530000       3.63358000       5.54554000       0.57460000      -0.85561000       1.51072000
H        0.68500000       2.73545000       5.89330000       0.34569000       1.18790000      -0.50236000
H        1.59659000       3.97690000       6.17686000      -1.05007000      -0.33790000      -0.94696000
O        7.11859000       5.18498000       9.46300000       0.82389000       0.44828000       3.73154000
H        6.51397000       5.94353000       9.66214000       0.75133000      -0.98523000      -0.04315000
H        6.97389000       4.54991000      10.20888000       0.25723000       0.93107000      -0.58972000
O        4.67041000       9.84700000       4.75658000      -0.12474000      -0.24188000       2.66099000
H        4.11518000       9.02729000       4.77677000       0.80128000       1.19181000      -0.20353000
H        5.09643000       9.88019000       5.64989000      -0.67507000      -0.11727000      -1.14837000
O        0.63239000      10.31295000       6.03172000       0.12415000       0.69106000       1.42726000
H        0.05603000      10.81108000       6.66440000       0.88869000      -0.82259000      -0.74697000
H        1.32322000       9.89286000       6.60345000      -1.24476000       0.31701000      -0.56161000
O        9.02112000       9.98756000       1.61986000       0.33328000       2.39395000      -1.95636000
H        8.86243000      10.09515000       0.64834000       0.09415000       0.23149000       1.25371000
H        9.80534000      10.56209000       1.80830000      -1.04305000      -0.85107000      -0.18606000
O        5.49181000       2.48836000       1.20458000       0.87704000       0.46732000      -1.61214000
H        5.20462000       3.19072000       0.56832000       0.43431000      -1.02034000       0.60982000
H        6.43374000       2.30338000       0.96139000      -1.24621000       0.32150000       0.27051000
O        2.10713000      10.09873000       3.45749000       0.35938000       1.54118000      -1.09679000
H        1.80120000      10.34586000       2.54867000       0.42829000      -0.27407000       1.31217000
H        2.84393000      10.73116000       3.65179000      -0.92543000      -0.92166000       0.06839000
O        3.13853000       9.30092000       9.64534000      -0.40358000      -0.52672000       3.05185000
H        2.59983000       9.96362000      10.14656000       0.60895000      -0.98573000      -0.67172000
H        3.28525000       8.56271000      10.28886000      -0.25459000       0.95034000      -0.64300000
O        9.75622000       0.86721000       0.75880000      -0.84571000      -1.61633000      -0.43689000
H        9.92625000       0.09889000       0.15764000      -0.20897000       1.07345000       0.77446000
H        9.04437000       0.55103000       1.37026000       1.27901000       0.27645000      -0.76212000
O        3.59012000       9.95907000       7.54390000       1.37952000       2.28155000      -1.43836000
H        4.23814000      10.34810000       8.18369000      -1.17386000      -0.67979000      -0.73518000
H        3.50252000      10.64273000       6.83289000       0.16231000      -0.91035000       0.60763000
O        4.33805000       0.90304000       9.81208000       1.23313000      -1.34116000       0.04835000
H        5.05290000       0.74684000      10.47932000      -1.02097000       0.03357000      -0.74806000
H        4.41289000       0.14023000       9.18510000       0.12779000       1.05521000       0.73308000
O        8.37400000      10.88620000      10.97364000      -0.71122000      -0.94348000      -0.78906000
H        7.39839000      10.74951000      10.87316000       1.43661000       0.07723000       0.12609000
H        8.78201000      10.21397000      10.37178000      -0.76959000       0.98401000       0.56503000
O        2.99878000       6.28877000       0.18209000      -0.35746000      -2.23094000      -0.22348000
H        2.02212000       6.23685000       0.33717000       1.52423000       0.20162000       0.04782000
H        3.36834000       5.50605000       0.66311000      -0.60758000       1.20560000      -0.55974000
22
Lattice="100.0 0.0 0.0 0.0 100.0 0.0 0.0 0.0 100.0" Properties=species:S:1:pos:R:3:forces:R:3 config_type=vacuum energy=-11580.57614828 pbc="T T T"
C        0.39329000       1.94358000       1.04554000      -1.01195000       1.72195000       1.03718000
C       -0.01812000       1.60737000       2.46662000       0.48318000      -2.30524000      -0.87631000
C        0.31486000       0.29033000       2.65368000       0.12080000       1.15184000      -1.04797000
H       -0.50301000       2.26605000       3.15099000      -0.04608000       0.32078000       0.25147000
C        0.88683000      -0.23310000       1.38730000      -0.29327000      -0.32276000       0.51214000
H        0.30501000      -0.29916000       3.55796000      -0.30357000       0.10972000       0.05289000
C        0.86643000       0.72035000       0.42948000       1.19855000      -1.08049000       1.04967000
H        1.21814000      -1.27133000       1.33108000       0.13672000       0.43822000      -0.29145000
H        1.48045000       0.77005000      -0.45237000      -0.42049000      -0.38112000      -0.39473000
H        1.30347000       2.53589000       1.18541000      -0.12784000       0.55123000      -0.33243000
H       -0.37571000       2.51410000       0.49783000       0.49704000      -0.05753000       0.12024000
C       -1.26636000      -0.48526000      -1.42942000      -2.43307000       1.66263000       2.05893000
C       -2.04916000      -0.41013000      -0.24807000       1.57063000      -0.58926000      -3.59254000
H       -2.58908000       0.50427000      -0.06499000      -0.40766000      -0.05866000      -0.11463000
H       -2.24088000      -1.25029000       0.42812000       0.92440000       0.47260000      -0.09565000
C       -0.17893000      -1.47239000      -1.56969000      -0.92906000      -1.34289000       1.48279000
H       -1.42936000       0.28979000      -2.22759000       0.60117000      -0.49631000       1.17969000
O       -0.31961000      -2.52790000      -0.96168000       0.53586000       0.39589000      -0.70331000
C        1.13222000      -1.20580000      -2.25984000       0.09461000       0.47939000       0.68677000
H        1.91442000      -1.36526000      -1.51434000      -0.10180000      -0.42155000      -0.16410000
H        1.32075000      -0.21734000      -2.64327000      -0.43044000       0.45651000      -0.22825000
H        1.20390000      -1.90691000      -3.05590000       0.39498000      -0.66157000      -0.60814000
